327
  PyMOL2.3          3D                             0

 52 54  0  0  1  0  0  0  0  0999 V2000
   -0.8041    0.5350    2.2231 O   0  0  0  0  0  0  0  0  0  0  0  0
   -0.2501    0.6862    3.4428 C   0  0  0  0  0  0  0  0  0  0  0  0
   -0.8336    0.2816    4.4377 O   0  0  0  0  0  0  0  0  0  0  0  0
    1.0703    1.4388    3.4344 C   0  0  0  0  0  0  0  0  0  0  0  0
    1.3497    2.0615    2.1860 O   0  0  0  0  0  0  0  0  0  0  0  0
    2.6499    2.6574    2.1719 C   0  0  0  0  0  0  0  0  0  0  0  0
    3.3961    2.1859    0.9147 C   0  0  0  0  0  0  0  0  0  0  0  0
    2.8888    0.9184    0.3579 N   0  0  0  0  0  0  0  0  0  0  0  0
    1.4174    0.9784    0.2359 C   0  0  0  0  0  0  0  0  0  0  0  0
    0.8140   -0.3431   -0.2911 C   0  0  0  0  0  0  0  0  0  0  0  0
    1.1509   -1.5060    0.5694 N   0  0  0  0  0  0  0  0  0  0  0  0
    2.6304   -1.5593    0.6798 C   0  0  0  0  0  0  0  0  0  0  0  0
    3.2401   -0.2376    1.2053 C   0  0  0  0  0  0  0  0  0  0  0  0
    0.6075   -2.7739   -0.0057 C   0  0  2  0  0  0  0  0  0  0  0  0
   -0.9124   -2.7510   -0.2210 C   0  0  0  0  0  0  0  0  0  0  0  0
   -1.7949   -2.2996    0.7761 C   0  0  0  0  0  0  0  0  0  0  0  0
   -3.1748   -2.3054    0.5656 C   0  0  0  0  0  0  0  0  0  0  0  0
   -3.6941   -2.7674   -0.6414 C   0  0  0  0  0  0  0  0  0  0  0  0
   -2.8354   -3.2249   -1.6385 C   0  0  0  0  0  0  0  0  0  0  0  0
   -1.4546   -3.2196   -1.4303 C   0  0  0  0  0  0  0  0  0  0  0  0
    0.9821   -4.0229    0.8085 C   0  0  0  0  0  0  0  0  0  0  0  0
    0.8409   -4.0623    2.2077 C   0  0  0  0  0  0  0  0  0  0  0  0
    1.1689   -5.2132    2.9279 C   0  0  0  0  0  0  0  0  0  0  0  0
    1.6357   -6.3391    2.2553 C   0  0  0  0  0  0  0  0  0  0  0  0
    2.0415   -7.7575    3.1411 Cl  0  0  0  0  0  0  0  0  0  0  0  0
    1.7765   -6.3252    0.8697 C   0  0  0  0  0  0  0  0  0  0  0  0
    1.4489   -5.1738    0.1489 C   0  0  0  0  0  0  0  0  0  0  0  0
   -0.6740   -0.4117    2.0122 H   0  0  0  0  0  0  0  0  0  0  0  0
    1.0284    2.1896    4.2311 H   0  0  0  0  0  0  0  0  0  0  0  0
    1.8635    0.7154    3.6546 H   0  0  0  0  0  0  0  0  0  0  0  0
    2.5497    3.7492    2.1597 H   0  0  0  0  0  0  0  0  0  0  0  0
    3.1839    2.3563    3.0792 H   0  0  0  0  0  0  0  0  0  0  0  0
    3.3889    2.9853    0.1614 H   0  0  0  0  0  0  0  0  0  0  0  0
    4.4499    2.0605    1.1989 H   0  0  0  0  0  0  0  0  0  0  0  0
    1.1433    1.7772   -0.4642 H   0  0  0  0  0  0  0  0  0  0  0  0
    0.9584    1.2206    1.2043 H   0  0  0  0  0  0  0  0  0  0  0  0
   -0.2702   -0.1972   -0.3372 H   0  0  0  0  0  0  0  0  0  0  0  0
    1.1640   -0.5110   -1.3190 H   0  0  0  0  0  0  0  0  0  0  0  0
    2.9373   -2.3457    1.3774 H   0  0  0  0  0  0  0  0  0  0  0  0
    3.0800   -1.7959   -0.2944 H   0  0  0  0  0  0  0  0  0  0  0  0
    4.3277   -0.3667    1.2280 H   0  0  0  0  0  0  0  0  0  0  0  0
    2.9067   -0.0761    2.2393 H   0  0  0  0  0  0  0  0  0  0  0  0
    1.0715   -2.8856   -0.9975 H   0  0  0  0  0  0  0  0  0  0  0  0
   -1.4044   -1.9304    1.7216 H   0  0  0  0  0  0  0  0  0  0  0  0
   -3.8431   -1.9501    1.3453 H   0  0  0  0  0  0  0  0  0  0  0  0
   -4.7686   -2.7737   -0.8036 H   0  0  0  0  0  0  0  0  0  0  0  0
   -3.2416   -3.5899   -2.5783 H   0  0  0  0  0  0  0  0  0  0  0  0
   -0.8031   -3.5875   -2.2196 H   0  0  0  0  0  0  0  0  0  0  0  0
    0.4801   -3.1861    2.7426 H   0  0  0  0  0  0  0  0  0  0  0  0
    1.0556   -5.2227    4.0084 H   0  0  0  0  0  0  0  0  0  0  0  0
    2.1357   -7.2061    0.3447 H   0  0  0  0  0  0  0  0  0  0  0  0
    1.5561   -5.1820   -0.9336 H   0  0  0  0  0  0  0  0  0  0  0  0
  1  2  1  0  0  0  0
  1 28  1  0  0  0  0
  2  3  2  0  0  0  0
  2  4  1  0  0  0  0
  4  5  1  0  0  0  0
  4 29  1  0  0  0  0
  4 30  1  0  0  0  0
  5  6  1  0  0  0  0
  6  7  1  0  0  0  0
  6 31  1  0  0  0  0
  6 32  1  0  0  0  0
  7  8  1  0  0  0  0
  7 33  1  0  0  0  0
  7 34  1  0  0  0  0
  8  9  1  0  0  0  0
  9 10  1  0  0  0  0
  9 35  1  0  0  0  0
  9 36  1  0  0  0  0
 10 11  1  0  0  0  0
 10 37  1  0  0  0  0
 10 38  1  0  0  0  0
 11 12  1  0  0  0  0
 11 14  1  0  0  0  0
 12 13  1  0  0  0  0
 12 39  1  0  0  0  0
 12 40  1  0  0  0  0
  8 13  1  0  0  0  0
 13 41  1  0  0  0  0
 13 42  1  0  0  0  0
 14 15  1  0  0  0  0
 14 21  1  0  0  0  0
 14 43  1  6  0  0  0
 15 16  2  0  0  0  0
 16 17  1  0  0  0  0
 16 44  1  0  0  0  0
 17 18  2  0  0  0  0
 17 45  1  0  0  0  0
 18 19  1  0  0  0  0
 18 46  1  0  0  0  0
 19 20  2  0  0  0  0
 19 47  1  0  0  0  0
 15 20  1  0  0  0  0
 20 48  1  0  0  0  0
 21 22  2  0  0  0  0
 22 23  1  0  0  0  0
 22 49  1  0  0  0  0
 23 24  2  0  0  0  0
 23 50  1  0  0  0  0
 24 25  1  0  0  0  0
 24 26  1  0  0  0  0
 26 27  2  0  0  0  0
 26 51  1  0  0  0  0
 21 27  1  0  0  0  0
 27 52  1  0  0  0  0
M  END
>  <PHA_LIPINSKI_HB_ACCEPTORS>
5

>  <PHA_LIPINSKI_HB_DONORS>
1

>  <PHA_MOLECULAR_WEIGHT>
388

>  <PHA_WILDMAN-CRIPPEN_LOGP>
3.148200

>  <PHA_LIPINSKI_RO5_COMPLIANCE>
4/4

>  <PHA_SMILES>
O=C(O)COCCN1CCN([C@H](c2ccccc2)c2ccc(Cl)cc2)CC1

>  <PHA_INCHI>
InChI=1S/C21H25ClN2O3/c22-19-8-6-18(7-9-19)21(17-4-2-1-3-5-17)24-12-10-23(11-13-24)14-15-27-16-20(25)26/h1-9,21H,10-16H2,(H,25,26)/t21-/m1/s1

>  <PHA_CONF_ID>
238

>  <PHA_CONF_ENERGY>
149.601418962 Kcal/mol

>  <PHA_CONF_ENERGY_DIFF>
3.252044829 Kcal/mol

>  <PHA_TPSA>
53.010000000 A^2

>  <PHA_ROTATABLE_BONDS_NUMBER>
8

$$$$
