328
  PyMOL2.3          3D                             0

 35 35  0  0  0  0  0  0  0  0999 V2000
    3.1887   -1.5059   -2.2008 C   0  0  0  0  0  0  0  0  0  0  0  0
    1.7235   -1.2487   -1.8912 C   0  0  0  0  0  0  0  0  0  0  0  0
    1.2319   -2.2226   -0.9391 N   0  0  0  0  0  0  0  0  0  0  0  0
    0.1704   -2.1081   -0.0799 C   0  0  0  0  0  0  0  0  0  0  0  0
   -0.5102   -0.9354   -0.2048 N   0  0  0  0  0  0  0  0  0  0  0  0
   -1.0794   -0.1840    0.9017 C   0  0  0  0  0  0  0  0  0  0  0  0
   -1.3235    1.2750    0.4993 C   0  0  0  0  0  0  0  0  0  0  0  0
    0.0307    1.9538   -0.5373 S   0  0  0  0  0  0  0  0  0  0  0  0
   -0.9315    2.4819   -2.0002 C   0  0  0  0  0  0  0  0  0  0  0  0
   -1.3619    1.3748   -2.9424 C   0  0  0  0  0  0  0  0  0  0  0  0
   -1.7216    0.1843   -2.3774 N   0  0  0  0  0  0  0  0  0  0  0  0
   -2.1352   -0.8144   -3.1877 C   0  0  0  0  0  0  0  0  0  0  0  0
   -2.2468   -0.6909   -4.5584 C   0  0  0  0  0  0  0  0  0  0  0  0
   -1.9177    0.5314   -5.1319 C   0  0  0  0  0  0  0  0  0  0  0  0
   -1.4778    1.5813   -4.3222 C   0  0  0  0  0  0  0  0  0  0  0  0
   -1.0966    3.2327   -5.1751 Br  0  0  0  0  0  0  0  0  0  0  0  0
   -0.2001   -2.9866    0.8017 N   0  0  0  0  0  0  0  0  0  0  0  0
    0.4925   -4.1235    0.9091 C   0  0  0  0  0  0  0  0  0  0  0  0
    1.1111   -5.1011    0.9864 N   0  0  0  0  0  0  0  0  0  0  0  0
    3.3379   -2.5171   -2.5941 H   0  0  0  0  0  0  0  0  0  0  0  0
    3.8024   -1.4071   -1.2993 H   0  0  0  0  0  0  0  0  0  0  0  0
    3.5537   -0.7922   -2.9451 H   0  0  0  0  0  0  0  0  0  0  0  0
    1.1464   -1.3098   -2.8202 H   0  0  0  0  0  0  0  0  0  0  0  0
    1.6173   -0.2365   -1.4848 H   0  0  0  0  0  0  0  0  0  0  0  0
    1.7721   -3.0804   -0.8885 H   0  0  0  0  0  0  0  0  0  0  0  0
   -0.8687   -0.6608   -1.1100 H   0  0  0  0  0  0  0  0  0  0  0  0
   -2.0079   -0.6646    1.2251 H   0  0  0  0  0  0  0  0  0  0  0  0
   -0.3918   -0.1872    1.7560 H   0  0  0  0  0  0  0  0  0  0  0  0
   -1.3675    1.8982    1.3994 H   0  0  0  0  0  0  0  0  0  0  0  0
   -2.2908    1.3687   -0.0044 H   0  0  0  0  0  0  0  0  0  0  0  0
   -0.2602    3.1743   -2.5135 H   0  0  0  0  0  0  0  0  0  0  0  0
   -1.8084    3.0531   -1.6800 H   0  0  0  0  0  0  0  0  0  0  0  0
   -2.3853   -1.7460   -2.6863 H   0  0  0  0  0  0  0  0  0  0  0  0
   -2.5869   -1.5217   -5.1659 H   0  0  0  0  0  0  0  0  0  0  0  0
   -2.0140    0.6591   -6.2072 H   0  0  0  0  0  0  0  0  0  0  0  0
  1  2  1  0  0  0  0
  1 20  1  0  0  0  0
  1 21  1  0  0  0  0
  1 22  1  0  0  0  0
  2  3  1  0  0  0  0
  2 23  1  0  0  0  0
  2 24  1  0  0  0  0
  3  4  1  0  0  0  0
  3 25  1  0  0  0  0
  4  5  1  0  0  0  0
  4 17  2  0  0  0  0
  5  6  1  0  0  0  0
  5 26  1  0  0  0  0
  6  7  1  0  0  0  0
  6 27  1  0  0  0  0
  6 28  1  0  0  0  0
  7  8  1  0  0  0  0
  7 29  1  0  0  0  0
  7 30  1  0  0  0  0
  8  9  1  0  0  0  0
  9 10  1  0  0  0  0
  9 31  1  0  0  0  0
  9 32  1  0  0  0  0
 10 11  2  0  0  0  0
 11 12  1  0  0  0  0
 12 13  2  0  0  0  0
 12 33  1  0  0  0  0
 13 14  1  0  0  0  0
 13 34  1  0  0  0  0
 14 15  2  0  0  0  0
 14 35  1  0  0  0  0
 10 15  1  0  0  0  0
 15 16  1  0  0  0  0
 17 18  1  0  0  0  0
 18 19  3  0  0  0  0
M  END
>  <PHA_LIPINSKI_HB_ACCEPTORS>
5

>  <PHA_LIPINSKI_HB_DONORS>
2

>  <PHA_MOLECULAR_WEIGHT>
341

>  <PHA_WILDMAN-CRIPPEN_LOGP>
2.113480

>  <PHA_LIPINSKI_RO5_COMPLIANCE>
4/4

>  <PHA_SMILES>
CCN/C(=N\C#N)NCCSCc1ncccc1Br

>  <PHA_INCHI>
InChI=1S/C12H16BrN5S/c1-2-15-12(18-9-14)17-6-7-19-8-11-10(13)4-3-5-16-11/h3-5H,2,6-8H2,1H3,(H2,15,17,18)

>  <PHA_CONF_ID>
315

>  <PHA_CONF_ENERGY>
-51.647267241 Kcal/mol

>  <PHA_CONF_ENERGY_DIFF>
6.635578524 Kcal/mol

>  <PHA_TPSA>
72.570000000 A^2

>  <PHA_ROTATABLE_BONDS_NUMBER>
6

$$$$
