57
     RDKit          3D

 38 38  0  0  0  0  0  0  0  0999 V2000
    6.5430   -1.7812   -0.5431 C   0  0  0  0  0  0  0  0  0  0  0  0
    5.7411   -0.5585   -0.1211 C   0  0  0  0  0  0  0  0  0  0  0  0
    6.2969    0.5723    0.2011 N   0  0  0  0  0  0  0  0  0  0  0  0
    7.6296    0.6735    0.1624 C   0  0  0  0  0  0  0  0  0  0  0  0
    8.7857    0.7477    0.1255 N   0  0  0  0  0  0  0  0  0  0  0  0
    4.3730   -0.7127   -0.0975 N   0  0  0  0  0  0  0  0  0  0  0  0
    3.4508    0.3607    0.2388 C   0  0  0  0  0  0  0  0  0  0  0  0
    2.0093   -0.1709    0.3535 C   0  0  0  0  0  0  0  0  0  0  0  0
    1.0597    0.8944    0.6974 N   0  0  0  0  0  0  0  0  0  0  0  0
   -0.3083    0.3658    0.7999 C   0  0  0  0  0  0  0  0  0  0  0  0
   -1.2920    1.4918    1.1427 C   0  0  0  0  0  0  0  0  0  0  0  0
   -2.9991    0.8797    1.3311 S   0  0  0  0  0  0  0  0  0  0  0  0
   -3.4406    0.6930   -0.4322 C   0  0  0  0  0  0  0  0  0  0  0  0
   -4.8449    0.1688   -0.6174 C   0  0  0  0  0  0  0  0  0  0  0  0
   -4.9390   -1.1713   -0.8632 N   0  0  0  0  0  0  0  0  0  0  0  0
   -6.1714   -1.7020   -1.0175 C   0  0  0  0  0  0  0  0  0  0  0  0
   -7.3379   -0.9637   -0.9491 C   0  0  0  0  0  0  0  0  0  0  0  0
   -7.2368    0.4020   -0.7076 C   0  0  0  0  0  0  0  0  0  0  0  0
   -5.9789    0.9832   -0.5383 C   0  0  0  0  0  0  0  0  0  0  0  0
   -5.9052    2.8515   -0.2271 Br  0  0  0  0  0  0  0  0  0  0  0  0
    7.1239   -1.5503   -1.4407 H   0  0  0  0  0  0  0  0  0  0  0  0
    5.8833   -2.6244   -0.7667 H   0  0  0  0  0  0  0  0  0  0  0  0
    7.2184   -2.0772    0.2649 H   0  0  0  0  0  0  0  0  0  0  0  0
    3.9690   -1.5959   -0.3885 H   0  0  0  0  0  0  0  0  0  0  0  0
    3.5002    1.1374   -0.5334 H   0  0  0  0  0  0  0  0  0  0  0  0
    3.7451    0.8130    1.1935 H   0  0  0  0  0  0  0  0  0  0  0  0
    1.7245   -0.6261   -0.6032 H   0  0  0  0  0  0  0  0  0  0  0  0
    1.9795   -0.9611    1.1144 H   0  0  0  0  0  0  0  0  0  0  0  0
    1.3276    1.3112    1.5911 H   0  0  0  0  0  0  0  0  0  0  0  0
   -0.5848   -0.0938   -0.1553 H   0  0  0  0  0  0  0  0  0  0  0  0
   -0.3466   -0.4083    1.5762 H   0  0  0  0  0  0  0  0  0  0  0  0
   -1.0086    1.9507    2.0967 H   0  0  0  0  0  0  0  0  0  0  0  0
   -1.2717    2.2826    0.3848 H   0  0  0  0  0  0  0  0  0  0  0  0
   -2.7451   -0.0181   -0.8902 H   0  0  0  0  0  0  0  0  0  0  0  0
   -3.3111    1.6441   -0.9583 H   0  0  0  0  0  0  0  0  0  0  0  0
   -6.1951   -2.7722   -1.2030 H   0  0  0  0  0  0  0  0  0  0  0  0
   -8.3034   -1.4393   -1.0799 H   0  0  0  0  0  0  0  0  0  0  0  0
   -8.1401    1.0035   -0.6506 H   0  0  0  0  0  0  0  0  0  0  0  0
  1  2  1  0
  2  3  2  0
  3  4  1  0
  4  5  3  0
  2  6  1  0
  6  7  1  0
  7  8  1  0
  8  9  1  0
  9 10  1  0
 10 11  1  0
 11 12  1  0
 12 13  1  0
 13 14  1  0
 14 15  2  0
 15 16  1  0
 16 17  2  0
 17 18  1  0
 18 19  2  0
 19 20  1  0
 19 14  1  0
  1 21  1  0
  1 22  1  0
  1 23  1  0
  6 24  1  0
  7 25  1  0
  7 26  1  0
  8 27  1  0
  8 28  1  0
  9 29  1  0
 10 30  1  0
 10 31  1  0
 11 32  1  0
 11 33  1  0
 13 34  1  0
 13 35  1  0
 16 36  1  0
 17 37  1  0
 18 38  1  0
V    1   0.0000    0.0943   -0.0122   -0.0453    0.1518   0
V    2   0.0000    0.2243   -0.0467   -0.0862    0.3572   0
V    3   0.0000   -0.5307   -0.7002   -0.1667    0.3362   A
V    4   0.0000    0.4571   -0.0690   -0.1625    0.6886   0
V    5   0.0000   -1.2379   -1.5045   -0.2630    0.5295   A
V    6   0.0000    0.3148   -0.2892   -0.1420    0.7459  AD
V    7   0.0000    0.0790   -0.0211   -0.0415    0.1416   0
V    8   0.0000    0.0790   -0.0211   -0.0415    0.1416   0
V    9   0.0000    0.3148   -0.2892   -0.1420    0.7459  AD
V   10   0.0000    0.0790   -0.0211   -0.0415    0.1416   0
V   11   0.0000    0.0790   -0.0211   -0.0415    0.1416   0
V   12   0.0000    1.1527   -0.1079   -0.2495    1.5100   0
V   13   0.0000    0.0822   -0.0175   -0.0404    0.1401   0
V   14   0.0000    0.2175   -0.0463   -0.0802    0.3440   0
V   15   0.0000    0.1551   -0.0442   -0.1489    0.3481   A
V   16   0.0000    0.2116   -0.0413   -0.1009    0.3537   0
V   17   0.0000    0.2116   -0.0413   -0.1009    0.3537   0
V   18   0.0000    0.2116   -0.0413   -0.1009    0.3537   0
V   19   0.0000    0.1873   -0.0240   -0.0640    0.2754   0
V   20   0.0000    0.7110   -0.2726   -0.3234    1.3069   0
V   21   0.0000    0.2043   -0.0658   -0.2059    0.4760   0
V   22   0.0000    0.2043   -0.0658   -0.2059    0.4760   0
V   23   0.0000    0.2043   -0.0658   -0.2059    0.4760   0
V   24   0.0000   -0.4349   -0.4996   -0.1147    0.1794   0
V   25   0.0000    0.2043   -0.0658   -0.2059    0.4760   0
V   26   0.0000    0.2043   -0.0658   -0.2059    0.4760   0
V   27   0.0000    0.2043   -0.0658   -0.2059    0.4760   0
V   28   0.0000    0.2043   -0.0658   -0.2059    0.4760   0
V   29   0.0000   -0.4349   -0.4996   -0.1147    0.1794   0
V   30   0.0000    0.2043   -0.0658   -0.2059    0.4760   0
V   31   0.0000    0.2043   -0.0658   -0.2059    0.4760   0
V   32   0.0000    0.2043   -0.0658   -0.2059    0.4760   0
V   33   0.0000    0.2043   -0.0658   -0.2059    0.4760   0
V   34   0.0000    0.2043   -0.0658   -0.2059    0.4760   0
V   35   0.0000    0.2043   -0.0658   -0.2059    0.4760   0
V   36   0.0000    0.2043   -0.0658   -0.2059    0.4760   0
V   37   0.0000    0.2043   -0.0658   -0.2059    0.4760   0
V   38   0.0000    0.2043   -0.0658   -0.2059    0.4760   0
M  END
>  <PHA_LIPINSKI_HB_ACCEPTORS>  (1) 
5

>  <PHA_LIPINSKI_HB_DONORS>  (1) 
2

>  <PHA_MOLECULAR_WEIGHT>  (1) 
355

>  <PHA_WILDMAN-CRIPPEN_LOGP>  (1) 
2.155980

>  <PHA_LIPINSKI_RO5_COMPLIANCE>  (1) 
4/4

>  <PHA_SMILES>  (1) 
C/C(=N\C#N)NCCNCCSCc1ncccc1Br

>  <PHA_INCHI>  (1) 
InChI=1S/C13H18BrN5S/c1-11(19-10-15)17-6-5-16-7-8-20-9-13-12(14)3-2-4-18-13/h2-4,16H,5-9H2,1H3,(H,17,19)

>  <PHA_TPSA>  (1) 
72.570000000 A^2

>  <PHA_CONF_ID>  (1) 
223

>  <PHA_CONF_ENERGY>  (1) 
52.623550079 Kcal/mol

>  <PHA_CONF_ENERGY_DIFF>  (1) 
8.334890405 Kcal/mol

>  <PHA_ROTATABLE_BONDS_NUMBER>  (1) 
8

$$$$
59
     RDKit          3D

 33 34  0  0  0  0  0  0  0  0999 V2000
   -4.2080    0.6128   -2.7726 O   0  0  0  0  0  1  0  0  0  0  0  0
   -5.2190    0.4615   -2.0699 N   0  0  0  0  0  4  0  0  0  0  0  0
   -6.3893    0.5568   -2.4655 O   0  0  0  0  0  0  0  0  0  0  0  0
   -5.0303    0.1470   -0.6752 C   0  0  0  0  0  0  0  0  0  0  0  0
   -6.0614   -0.0660    0.2856 C   0  0  0  0  0  0  0  0  0  0  0  0
   -5.4527   -0.3396    1.4893 C   0  0  0  0  0  0  0  0  0  0  0  0
   -4.0962   -0.2997    1.2918 N   0  0  0  0  0  0  0  0  0  0  0  0
   -3.8132   -0.0050   -0.0221 C   0  0  0  0  0  0  0  0  0  0  0  0
   -2.5374    0.0928   -0.4724 N   0  0  0  0  0  0  0  0  0  0  0  0
   -1.3490   -0.1101    0.3470 C   0  0  0  0  0  0  0  0  0  0  0  0
   -0.0785    0.0860   -0.4867 C   0  0  0  0  0  0  0  0  0  0  0  0
    1.4065   -0.1977    0.5288 S   0  0  0  0  0  0  0  0  0  0  0  0
    2.6670    0.1555   -0.7428 C   0  0  0  0  0  0  0  0  0  0  0  0
    4.0729    0.1216   -0.1927 C   0  0  0  0  0  0  0  0  0  0  0  0
    4.6543   -1.0830    0.2035 C   0  0  0  0  0  0  0  0  0  0  0  0
    5.9556   -1.0739    0.6983 C   0  0  0  0  0  0  0  0  0  0  0  0
    6.6430    0.1299    0.7836 C   0  0  0  0  0  0  0  0  0  0  0  0
    5.9977    1.2810    0.3667 C   0  0  0  0  0  0  0  0  0  0  0  0
    4.7375    1.3034   -0.1205 N   0  0  0  0  0  0  0  0  0  0  0  0
   -7.1293   -0.0221    0.1091 H   0  0  0  0  0  0  0  0  0  0  0  0
   -5.8636   -0.5577    2.4665 H   0  0  0  0  0  0  0  0  0  0  0  0
   -3.4033   -0.4613    2.0085 H   0  0  0  0  0  0  0  0  0  0  0  0
   -2.3828    0.3221   -1.4592 H   0  0  0  0  0  0  0  0  0  0  0  0
   -1.3571    0.6030    1.1806 H   0  0  0  0  0  0  0  0  0  0  0  0
   -1.3669   -1.1254    0.7620 H   0  0  0  0  0  0  0  0  0  0  0  0
   -0.0506    1.1048   -0.8882 H   0  0  0  0  0  0  0  0  0  0  0  0
   -0.0716   -0.6128   -1.3303 H   0  0  0  0  0  0  0  0  0  0  0  0
    2.4691    1.1474   -1.1637 H   0  0  0  0  0  0  0  0  0  0  0  0
    2.5799   -0.5755   -1.5541 H   0  0  0  0  0  0  0  0  0  0  0  0
    4.1025   -2.0153    0.1362 H   0  0  0  0  0  0  0  0  0  0  0  0
    6.4265   -1.9991    1.0178 H   0  0  0  0  0  0  0  0  0  0  0  0
    7.6559    0.1712    1.1672 H   0  0  0  0  0  0  0  0  0  0  0  0
    6.4917    2.2473    0.4143 H   0  0  0  0  0  0  0  0  0  0  0  0
  1  2  1  0
  2  3  2  0
  2  4  1  0
  4  5  1  0
  5  6  2  0
  6  7  1  0
  7  8  1  0
  8  9  1  0
  9 10  1  0
 10 11  1  0
 11 12  1  0
 12 13  1  0
 13 14  1  0
 14 15  2  0
 15 16  1  0
 16 17  2  0
 17 18  1  0
 18 19  2  0
  8  4  2  0
 19 14  1  0
  5 20  1  0
  6 21  1  0
  7 22  1  0
  9 23  1  0
 10 24  1  0
 10 25  1  0
 11 26  1  0
 11 27  1  0
 13 28  1  0
 13 29  1  0
 15 30  1  0
 16 31  1  0
 17 32  1  0
 18 33  1  0
M  CHG  2   1  -1   2   1
V    1   0.0000   -0.0838   -0.9066   -0.2467    1.0694   A
V    2   0.0000   -0.0078   -0.0946   -0.0849    0.1718   0
V    3   0.0000   -0.0838   -0.9066   -0.2467    1.0694   A
V    4   0.0000    0.2160   -0.0360   -0.0786    0.3306   0
V    5   0.0000    0.2116   -0.0413   -0.1009    0.3537   0
V    6   0.0000    0.2116   -0.0413   -0.1009    0.3537   0
V    7   0.0000    0.1551   -0.0442   -0.1489    0.3481   D
V    8   0.0000    0.2160   -0.0360   -0.0786    0.3306   0
V    9   0.0000    0.3176   -0.2883   -0.1403    0.7462   D
V   10   0.0000    0.0790   -0.0211   -0.0415    0.1416   0
V   11   0.0000    0.0790   -0.0211   -0.0415    0.1416   0
V   12   0.0000    1.1527   -0.1079   -0.2495    1.5100   0
V   13   0.0000    0.0822   -0.0175   -0.0404    0.1401   0
V   14   0.0000    0.2175   -0.0463   -0.0802    0.3440   0
V   15   0.0000    0.2116   -0.0413   -0.1009    0.3537   0
V   16   0.0000    0.2116   -0.0413   -0.1009    0.3537   0
V   17   0.0000    0.2116   -0.0413   -0.1009    0.3537   0
V   18   0.0000    0.2116   -0.0413   -0.1009    0.3537   0
V   19   0.0000    0.1551   -0.0442   -0.1489    0.3481   A
V   20   0.0000    0.2043   -0.0658   -0.2059    0.4760   0
V   21   0.0000    0.2043   -0.0658   -0.2059    0.4760   0
V   22   0.0000   -0.4349   -0.4996   -0.1147    0.1794   0
V   23   0.0000   -0.4349   -0.4996   -0.1147    0.1794   0
V   24   0.0000    0.2043   -0.0658   -0.2059    0.4760   0
V   25   0.0000    0.2043   -0.0658   -0.2059    0.4760   0
V   26   0.0000    0.2043   -0.0658   -0.2059    0.4760   0
V   27   0.0000    0.2043   -0.0658   -0.2059    0.4760   0
V   28   0.0000    0.2043   -0.0658   -0.2059    0.4760   0
V   29   0.0000    0.2043   -0.0658   -0.2059    0.4760   0
V   30   0.0000    0.2043   -0.0658   -0.2059    0.4760   0
V   31   0.0000    0.2043   -0.0658   -0.2059    0.4760   0
V   32   0.0000    0.2043   -0.0658   -0.2059    0.4760   0
V   33   0.0000    0.2043   -0.0658   -0.2059    0.4760   0
M  END
>  <PHA_LIPINSKI_HB_ACCEPTORS>  (2) 
6

>  <PHA_LIPINSKI_HB_DONORS>  (2) 
2

>  <PHA_MOLECULAR_WEIGHT>  (2) 
278

>  <PHA_WILDMAN-CRIPPEN_LOGP>  (2) 
2.663200

>  <PHA_LIPINSKI_RO5_COMPLIANCE>  (2) 
4/4

>  <PHA_SMILES>  (2) 
O=[N+]([O-])c1cc[nH]c1NCCSCc1ccccn1

>  <PHA_INCHI>  (2) 
InChI=1S/C12H14N4O2S/c17-16(18)11-4-6-14-12(11)15-7-8-19-9-10-3-1-2-5-13-10/h1-6,14-15H,7-9H2

>  <PHA_TPSA>  (2) 
79.560000000 A^2

>  <PHA_CONF_ID>  (2) 
298

>  <PHA_CONF_ENERGY>  (2) 
110.876031291 Kcal/mol

>  <PHA_CONF_ENERGY_DIFF>  (2) 
7.660127053 Kcal/mol

>  <PHA_ROTATABLE_BONDS_NUMBER>  (2) 
7

$$$$
64
     RDKit          3D

 39 40  0  0  0  0  0  0  0  0999 V2000
   -5.8191    3.9470    0.1910 C   0  0  0  0  0  0  0  0  0  0  0  0
   -4.6556    3.0997    0.3010 N   0  0  0  0  0  0  0  0  0  0  0  0
   -3.4093    3.2961   -0.2271 C   0  0  0  0  0  0  0  0  0  0  0  0
   -2.9249    4.2342   -0.9711 N   0  0  0  0  0  0  0  0  0  0  0  0
   -3.6778    5.2538   -1.3861 C   0  0  0  0  0  0  0  0  0  0  0  0
   -4.3115    6.1497   -1.7698 N   0  0  0  0  0  0  0  0  0  0  0  0
   -2.6094    2.2546    0.1666 N   0  0  0  0  0  0  0  0  0  0  0  0
   -1.1920    2.1594   -0.1383 C   0  0  0  0  0  0  0  0  0  0  0  0
   -0.7148    0.7259   -0.2751 C   0  0  0  0  0  0  0  0  0  0  0  0
   -1.5792   -0.3610   -0.4628 C   0  0  0  0  0  0  0  0  0  0  0  0
   -1.0773   -1.6590   -0.5697 C   0  0  0  0  0  0  0  0  0  0  0  0
    0.2981   -1.8856   -0.5284 C   0  0  0  0  0  0  0  0  0  0  0  0
    1.1900   -0.8173   -0.3800 C   0  0  0  0  0  0  0  0  0  0  0  0
    2.6265   -1.0764   -0.3447 C   0  0  0  0  0  0  0  0  0  0  0  0
    3.5786   -0.2152   -0.8480 C   0  0  0  0  0  0  0  0  0  0  0  0
    5.1387   -0.8870   -0.6481 S   0  0  0  0  0  0  0  0  0  0  0  0
    4.4482   -2.2943    0.0912 C   0  0  0  0  0  0  0  0  0  0  0  0
    5.3090   -3.2625    0.5033 N   0  0  0  0  0  0  0  0  0  0  0  0
    4.8404   -4.3213    1.0764 C   0  0  0  0  0  0  0  0  0  0  0  0
    3.5615   -4.6472    1.3499 N   0  0  0  0  0  0  0  0  0  0  0  0
    5.6877   -5.2853    1.4929 N   0  0  0  0  0  0  0  0  0  0  0  0
    3.1266   -2.2677    0.1589 N   0  0  0  0  0  0  0  0  0  0  0  0
    0.6731    0.4803   -0.2442 C   0  0  0  0  0  0  0  0  0  0  0  0
   -6.1096    4.0851   -0.8555 H   0  0  0  0  0  0  0  0  0  0  0  0
   -6.6653    3.4755    0.7021 H   0  0  0  0  0  0  0  0  0  0  0  0
   -5.6477    4.9170    0.6703 H   0  0  0  0  0  0  0  0  0  0  0  0
   -4.8324    2.2158    0.7582 H   0  0  0  0  0  0  0  0  0  0  0  0
   -2.9283    1.6397    0.9027 H   0  0  0  0  0  0  0  0  0  0  0  0
   -0.6434    2.6391    0.6849 H   0  0  0  0  0  0  0  0  0  0  0  0
   -0.9359    2.6877   -1.0691 H   0  0  0  0  0  0  0  0  0  0  0  0
   -2.6549   -0.2120   -0.5324 H   0  0  0  0  0  0  0  0  0  0  0  0
   -1.7592   -2.4958   -0.6866 H   0  0  0  0  0  0  0  0  0  0  0  0
    0.6768   -2.9017   -0.6304 H   0  0  0  0  0  0  0  0  0  0  0  0
    3.4479    0.7393   -1.3344 H   0  0  0  0  0  0  0  0  0  0  0  0
    3.3012   -5.4134    1.9436 H   0  0  0  0  0  0  0  0  0  0  0  0
    2.8462   -3.9685    1.0913 H   0  0  0  0  0  0  0  0  0  0  0  0
    5.3701   -6.2184    1.6963 H   0  0  0  0  0  0  0  0  0  0  0  0
    6.6765   -5.1302    1.3555 H   0  0  0  0  0  0  0  0  0  0  0  0
    1.3505    1.3200   -0.1126 H   0  0  0  0  0  0  0  0  0  0  0  0
  1  2  1  0
  2  3  1  0
  3  4  2  0
  4  5  1  0
  5  6  3  0
  3  7  1  0
  7  8  1  0
  8  9  1  0
  9 10  2  0
 10 11  1  0
 11 12  2  0
 12 13  1  0
 13 14  1  0
 14 15  2  0
 15 16  1  0
 16 17  1  0
 17 18  1  0
 18 19  2  3
 19 20  1  0
 19 21  1  0
 17 22  2  0
 13 23  2  0
 22 14  1  0
 23  9  1  0
  1 24  1  0
  1 25  1  0
  1 26  1  0
  2 27  1  0
  7 28  1  0
  8 29  1  0
  8 30  1  0
 10 31  1  0
 11 32  1  0
 12 33  1  0
 15 34  1  0
 20 35  1  0
 20 36  1  0
 21 37  1  0
 21 38  1  0
 23 39  1  0
V    1   0.0000    0.0790   -0.0211   -0.0415    0.1416   0
V    2   0.0000    0.3148   -0.2892   -0.1420    0.7459  AD
V    3   0.0000    0.2243   -0.0467   -0.0862    0.3572   0
V    4   0.0000   -0.5307   -0.7002   -0.1667    0.3362   A
V    5   0.0000    0.4571   -0.0690   -0.1625    0.6886   0
V    6   0.0000   -1.2379   -1.5045   -0.2630    0.5295   A
V    7   0.0000    0.3148   -0.2892   -0.1420    0.7459  AD
V    8   0.0000    0.0822   -0.0175   -0.0404    0.1401   0
V    9   0.0000    0.2175   -0.0463   -0.0802    0.3440   0
V   10   0.0000    0.2116   -0.0413   -0.1009    0.3537   0
V   11   0.0000    0.2116   -0.0413   -0.1009    0.3537   0
V   12   0.0000    0.2116   -0.0413   -0.1009    0.3537   0
V   13   0.0000    0.2183   -0.0448   -0.0800    0.3432   0
V   14   0.0000    0.2183   -0.0448   -0.0800    0.3432   0
V   15   0.0000    0.2116   -0.0413   -0.1009    0.3537   0
V   16   0.0000    1.2265   -0.0643   -0.2439    1.5347   0
V   17   0.0000    0.2160   -0.0360   -0.0786    0.3306   0
V   18   0.0000   -0.5307   -0.7002   -0.1667    0.3362   A
V   19   0.0000    0.2243   -0.0467   -0.0862    0.3572   0
V   20   0.0000    0.0527   -0.8965   -0.0757    1.0249  AD
V   21   0.0000    0.0527   -0.8965   -0.0757    1.0249  AD
V   22   0.0000    0.1551   -0.0442   -0.1489    0.3481   A
V   23   0.0000    0.2116   -0.0413   -0.1009    0.3537   0
V   24   0.0000    0.2043   -0.0658   -0.2059    0.4760   0
V   25   0.0000    0.2043   -0.0658   -0.2059    0.4760   0
V   26   0.0000    0.2043   -0.0658   -0.2059    0.4760   0
V   27   0.0000   -0.4349   -0.4996   -0.1147    0.1794   0
V   28   0.0000   -0.4349   -0.4996   -0.1147    0.1794   0
V   29   0.0000    0.2043   -0.0658   -0.2059    0.4760   0
V   30   0.0000    0.2043   -0.0658   -0.2059    0.4760   0
V   31   0.0000    0.2043   -0.0658   -0.2059    0.4760   0
V   32   0.0000    0.2043   -0.0658   -0.2059    0.4760   0
V   33   0.0000    0.2043   -0.0658   -0.2059    0.4760   0
V   34   0.0000    0.2043   -0.0658   -0.2059    0.4760   0
V   35   0.0000   -0.4349   -0.4996   -0.1147    0.1794   0
V   36   0.0000   -0.4349   -0.4996   -0.1147    0.1794   0
V   37   0.0000   -0.4349   -0.4996   -0.1147    0.1794   0
V   38   0.0000   -0.4349   -0.4996   -0.1147    0.1794   0
V   39   0.0000    0.2043   -0.0658   -0.2059    0.4760   0
M  END
>  <PHA_LIPINSKI_HB_ACCEPTORS>  (3) 
8

>  <PHA_LIPINSKI_HB_DONORS>  (3) 
6

>  <PHA_MOLECULAR_WEIGHT>  (3) 
328

>  <PHA_WILDMAN-CRIPPEN_LOGP>  (3) 
0.861080

>  <PHA_LIPINSKI_RO5_COMPLIANCE>  (3) 
3/4

>  <PHA_SMILES>  (3) 
CN/C(=N\C#N)NCc1cccc(-c2csc(N=C(N)N)n2)c1

>  <PHA_INCHI>  (3) 
InChI=1S/C14H16N8S/c1-18-13(20-8-15)19-6-9-3-2-4-10(5-9)11-7-23-14(21-11)22-12(16)17/h2-5,7H,6H2,1H3,(H2,18,19,20)(H4,16,17,21,22)

>  <PHA_TPSA>  (3) 
136.970000000 A^2

>  <PHA_CONF_ID>  (3) 
495

>  <PHA_CONF_ENERGY>  (3) 
-202.174824233 Kcal/mol

>  <PHA_CONF_ENERGY_DIFF>  (3) 
5.040071320 Kcal/mol

>  <PHA_ROTATABLE_BONDS_NUMBER>  (3) 
4

$$$$
