Theophylline
PharmScreen

 21 22  0  0  0  0            999 V2000
    2.1329   -1.6558    0.0315 C   0  0  0  0  0  0  0  0  0  0  0  0
    0.9377   -0.8320    0.0222 N   0  0  0  0  0  0  0  0  0  0  0  0
    1.0447    0.5327   -0.0921 C   0  0  0  0  0  0  0  0  0  0  0  0
   -0.0524    1.3339   -0.1043 C   0  0  0  0  0  0  0  0  0  0  0  0
   -1.3792    0.8501   -0.0027 C   0  0  0  0  0  0  0  0  0  0  0  0
   -2.3562    1.5925   -0.0161 O   0  0  0  0  0  0  0  0  0  0  0  0
   -1.4397   -0.5427    0.1118 N   0  0  0  0  0  0  0  0  0  0  0  0
   -0.3299   -1.4137    0.1288 C   0  0  0  0  0  0  0  0  0  0  0  0
   -0.4726   -2.6352    0.2332 O   0  0  0  0  0  0  0  0  0  0  0  0
   -2.7679   -1.1138    0.2205 C   0  0  0  0  0  0  0  0  0  0  0  0
    0.4248    2.6052   -0.2288 N   0  0  0  0  0  0  0  0  0  0  0  0
    1.7914    2.5064   -0.2856 C   0  0  0  0  0  0  0  0  0  0  0  0
    2.1948    1.2536   -0.2043 N   0  0  0  0  0  0  0  0  0  0  0  0
    1.8959   -2.7185    0.1280 H   0  0  0  0  0  0  0  0  0  0  0  0
    2.6790   -1.5032   -0.9048 H   0  0  0  0  0  0  0  0  0  0  0  0
    2.7636   -1.3604    0.8760 H   0  0  0  0  0  0  0  0  0  0  0  0
   -3.3469   -0.8335   -0.6657 H   0  0  0  0  0  0  0  0  0  0  0  0
   -2.7584   -2.2025    0.3092 H   0  0  0  0  0  0  0  0  0  0  0  0
   -3.2648   -0.6891    1.0991 H   0  0  0  0  0  0  0  0  0  0  0  0
   -0.1278    3.4521   -0.2705 H   0  0  0  0  0  0  0  0  0  0  0  0
    2.4311    3.3738   -0.3854 H   0  0  0  0  0  0  0  0  0  0  0  0
  1  2  1  0  0  0  0
  2  3  1  0  0  0  0
  3  4  2  0  0  0  0
  4  5  1  0  0  0  0
  5  6  2  0  0  0  0
  5  7  1  0  0  0  0
  7  8  1  0  0  0  0
  8  9  2  0  0  0  0
  7 10  1  0  0  0  0
  4 11  1  0  0  0  0
 11 12  1  0  0  0  0
 12 13  2  0  0  0  0
  8  2  1  0  0  0  0
 13  3  1  0  0  0  0
  1 14  1  0  0  0  0
  1 15  1  0  0  0  0
  1 16  1  0  0  0  0
 10 17  1  0  0  0  0
 10 18  1  0  0  0  0
 10 19  1  0  0  0  0
 11 20  1  0  0  0  0
 12 21  1  0  0  0  0
V    1   0.0000    0.0000    0.0000    0.0000    0.0000   0
V    2   0.0000    0.0000    0.0000    0.0000    0.0000   0
V    3   0.0000    0.0000    0.0000    0.0000    0.0000   0
V    4   0.0000    0.0000    0.0000    0.0000    0.0000   0
V    5   0.0000    0.0000    0.0000    0.0000    0.0000   0
V    6   0.0000    0.0000    0.0000    0.0000    0.0000   A
V    7   0.0000    0.0000    0.0000    0.0000    0.0000   0
V    8   0.0000    0.0000    0.0000    0.0000    0.0000   0
V    9   0.0000    0.0000    0.0000    0.0000    0.0000   A
V   10   0.0000    0.0000    0.0000    0.0000    0.0000   0
V   11   0.0000    0.0000    0.0000    0.0000    0.0000   D
V   12   0.0000    0.0000    0.0000    0.0000    0.0000   0
V   13   0.0000    0.0000    0.0000    0.0000    0.0000   A
V   14   0.0000    0.0000    0.0000    0.0000    0.0000   0
V   15   0.0000    0.0000    0.0000    0.0000    0.0000   0
V   16   0.0000    0.0000    0.0000    0.0000    0.0000   0
V   17   0.0000    0.0000    0.0000    0.0000    0.0000   0
V   18   0.0000    0.0000    0.0000    0.0000    0.0000   0
V   19   0.0000    0.0000    0.0000    0.0000    0.0000   0
V   20   0.0000    0.0000    0.0000    0.0000    0.0000   0
V   21   0.0000    0.0000    0.0000    0.0000    0.0000   0
M  END
> <PHA_LIPINSKI_HB_ACCEPTORS>
6

> <PHA_LIPINSKI_HB_DONORS>
1

> <PHA_MOLECULAR_WEIGHT>
180

> <PHA_WILDMAN-CRIPPEN_LOGP>
-1.039700

> <PHA_LIPINSKI_RO5_COMPLIANCE>
4/4

> <PHA_SMILES>
Cn1c(=O)c2[nH]cnc2n(C)c1=O

> <PHA_INCHI>
InChI=1S/C7H8N4O2/c1-10-5-4(8-3-9-5)6(12)11(2)7(10)13/h3H,1-2H3,(H,8,9)

> <PHA_TPSA>
72.680000000 A^2

> <PHA_CONF_ID>
500

> <PHA_CONF_ENERGY>
-126.017071188 Kcal/mol

> <PHA_CONF_ENERGY_DIFF>
0.207343314 Kcal/mol

> <PHA_ROTATABLE_BONDS_NUMBER>
0

$$$$
Ketoprofen
PharmScreen

 33 34  0  0  0  0            999 V2000
   -4.0722    1.0253    0.8313 C   0  0  0  0  0  0  0  0  0  0  0  0
   -3.4432   -0.1853    0.1410 C   0  0  2  0  0  0  0  0  0  0  0  0
   -2.0331    0.1173   -0.3462 C   0  0  0  0  0  0  0  0  0  0  0  0
   -0.9476   -0.6136    0.1646 C   0  0  0  0  0  0  0  0  0  0  0  0
    0.3620   -0.3451   -0.2577 C   0  0  0  0  0  0  0  0  0  0  0  0
    0.5942    0.6380   -1.2243 C   0  0  0  0  0  0  0  0  0  0  0  0
   -0.4754    1.3707   -1.7372 C   0  0  0  0  0  0  0  0  0  0  0  0
   -1.7765    1.1170   -1.2975 C   0  0  0  0  0  0  0  0  0  0  0  0
    1.4673   -1.1595    0.3099 C   0  0  0  0  0  0  0  0  0  0  0  0
    1.2559   -2.3321    0.6095 O   0  0  0  0  0  0  0  0  0  0  0  0
    2.8212   -0.5905    0.5268 C   0  0  0  0  0  0  0  0  0  0  0  0
    3.0041    0.7316    0.9504 C   0  0  0  0  0  0  0  0  0  0  0  0
    4.2946    1.2240    1.1557 C   0  0  0  0  0  0  0  0  0  0  0  0
    5.3996    0.3971    0.9515 C   0  0  0  0  0  0  0  0  0  0  0  0
    5.2191   -0.9266    0.5507 C   0  0  0  0  0  0  0  0  0  0  0  0
    3.9314   -1.4233    0.3445 C   0  0  0  0  0  0  0  0  0  0  0  0
   -4.3703   -0.6802   -0.9571 C   0  0  0  0  0  0  0  0  0  0  0  0
   -4.3086   -0.4557   -2.1546 O   0  0  0  0  0  0  0  0  0  0  0  0
   -5.3875   -1.4245   -0.4690 O   0  0  0  0  0  0  0  0  0  0  0  0
   -3.4327    1.3946    1.6405 H   0  0  0  0  0  0  0  0  0  0  0  0
   -5.0451    0.7648    1.2628 H   0  0  0  0  0  0  0  0  0  0  0  0
   -4.2418    1.8510    0.1311 H   0  0  0  0  0  0  0  0  0  0  0  0
   -3.3744   -0.9981    0.8770 H   0  0  0  0  0  0  0  0  0  0  0  0
   -1.1128   -1.4016    0.8987 H   0  0  0  0  0  0  0  0  0  0  0  0
    1.5944    0.8308   -1.6028 H   0  0  0  0  0  0  0  0  0  0  0  0
   -0.3005    2.1320   -2.4939 H   0  0  0  0  0  0  0  0  0  0  0  0
   -2.5953    1.6920   -1.7277 H   0  0  0  0  0  0  0  0  0  0  0  0
    2.1548    1.3823    1.1416 H   0  0  0  0  0  0  0  0  0  0  0  0
    4.4392    2.2503    1.4847 H   0  0  0  0  0  0  0  0  0  0  0  0
    6.4036    0.7813    1.1162 H   0  0  0  0  0  0  0  0  0  0  0  0
    6.0798   -1.5746    0.4050 H   0  0  0  0  0  0  0  0  0  0  0  0
    3.7933   -2.4597    0.0427 H   0  0  0  0  0  0  0  0  0  0  0  0
   -5.8975   -1.6752   -1.2681 H   0  0  0  0  0  0  0  0  0  0  0  0
  1  2  1  0  0  0  0
  2  3  1  0  0  0  0
  3  4  2  0  0  0  0
  4  5  1  0  0  0  0
  5  6  2  0  0  0  0
  6  7  1  0  0  0  0
  7  8  2  0  0  0  0
  5  9  1  0  0  0  0
  9 10  2  0  0  0  0
  9 11  1  0  0  0  0
 11 12  2  0  0  0  0
 12 13  1  0  0  0  0
 13 14  2  0  0  0  0
 14 15  1  0  0  0  0
 15 16  2  0  0  0  0
  2 17  1  0  0  0  0
 17 18  2  0  0  0  0
 17 19  1  0  0  0  0
  8  3  1  0  0  0  0
 16 11  1  0  0  0  0
  1 20  1  0  0  0  0
  1 21  1  0  0  0  0
  1 22  1  0  0  0  0
  2 23  1  1  0  0  0
  4 24  1  0  0  0  0
  6 25  1  0  0  0  0
  7 26  1  0  0  0  0
  8 27  1  0  0  0  0
 12 28  1  0  0  0  0
 13 29  1  0  0  0  0
 14 30  1  0  0  0  0
 15 31  1  0  0  0  0
 16 32  1  0  0  0  0
 19 33  1  0  0  0  0
V    1   0.0000    0.0000    0.0000    0.0000    0.0000   0
V    2   0.0000    0.0000    0.0000    0.0000    0.0000   0
V    3   0.0000    0.0000    0.0000    0.0000    0.0000   0
V    4   0.0000    0.0000    0.0000    0.0000    0.0000   0
V    5   0.0000    0.0000    0.0000    0.0000    0.0000   0
V    6   0.0000    0.0000    0.0000    0.0000    0.0000   0
V    7   0.0000    0.0000    0.0000    0.0000    0.0000   0
V    8   0.0000    0.0000    0.0000    0.0000    0.0000   0
V    9   0.0000    0.0000    0.0000    0.0000    0.0000   0
V   10   0.0000    0.0000    0.0000    0.0000    0.0000   A
V   11   0.0000    0.0000    0.0000    0.0000    0.0000   0
V   12   0.0000    0.0000    0.0000    0.0000    0.0000   0
V   13   0.0000    0.0000    0.0000    0.0000    0.0000   0
V   14   0.0000    0.0000    0.0000    0.0000    0.0000   0
V   15   0.0000    0.0000    0.0000    0.0000    0.0000   0
V   16   0.0000    0.0000    0.0000    0.0000    0.0000   0
V   17   0.0000    0.0000    0.0000    0.0000    0.0000   0
V   18   0.0000    0.0000    0.0000    0.0000    0.0000   A
V   19   0.0000    0.0000    0.0000    0.0000    0.0000  AD
V   20   0.0000    0.0000    0.0000    0.0000    0.0000   0
V   21   0.0000    0.0000    0.0000    0.0000    0.0000   0
V   22   0.0000    0.0000    0.0000    0.0000    0.0000   0
V   23   0.0000    0.0000    0.0000    0.0000    0.0000   0
V   24   0.0000    0.0000    0.0000    0.0000    0.0000   0
V   25   0.0000    0.0000    0.0000    0.0000    0.0000   0
V   26   0.0000    0.0000    0.0000    0.0000    0.0000   0
V   27   0.0000    0.0000    0.0000    0.0000    0.0000   0
V   28   0.0000    0.0000    0.0000    0.0000    0.0000   0
V   29   0.0000    0.0000    0.0000    0.0000    0.0000   0
V   30   0.0000    0.0000    0.0000    0.0000    0.0000   0
V   31   0.0000    0.0000    0.0000    0.0000    0.0000   0
V   32   0.0000    0.0000    0.0000    0.0000    0.0000   0
V   33   0.0000    0.0000    0.0000    0.0000    0.0000   0
M  END
> <PHA_LIPINSKI_HB_ACCEPTORS>
3

> <PHA_LIPINSKI_HB_DONORS>
1

> <PHA_MOLECULAR_WEIGHT>
254

> <PHA_WILDMAN-CRIPPEN_LOGP>
3.105700

> <PHA_LIPINSKI_RO5_COMPLIANCE>
4/4

> <PHA_SMILES>
C[C@@H](C(=O)O)c1cccc(C(=O)c2ccccc2)c1

> <PHA_INCHI>
InChI=1S/C16H14O3/c1-11(16(18)19)13-8-5-9-14(10-13)15(17)12-6-3-2-4-7-12/h2-11H,1H3,(H,18,19)/t11-/m1/s1

> <PHA_TPSA>
54.370000000 A^2

> <PHA_CONF_ID>
209

> <PHA_CONF_ENERGY>
71.572155331 Kcal/mol

> <PHA_CONF_ENERGY_DIFF>
1.042264780 Kcal/mol

> <PHA_ROTATABLE_BONDS_NUMBER>
4

$$$$
Cimetidine
PharmScreen

 33 33  0  0  0  0            999 V2000
    4.2259   -2.2500   -0.0062 C   0  0  0  0  0  0  0  0  0  0  0  0
    4.5984   -0.8221    0.1042 C   0  0  0  0  0  0  0  0  0  0  0  0
    3.9090    0.3455   -0.1797 C   0  0  0  0  0  0  0  0  0  0  0  0
    4.7037    1.4414    0.0895 N   0  0  0  0  0  0  0  0  0  0  0  0
    5.8305    0.9574    0.5549 C   0  0  0  0  0  0  0  0  0  0  0  0
    5.8136   -0.4061    0.5871 N   0  0  0  0  0  0  0  0  0  0  0  0
    2.5344    0.5331   -0.7265 C   0  0  0  0  0  0  0  0  0  0  0  0
    1.2570    0.0179    0.4687 S   0  0  0  0  0  0  0  0  0  0  0  0
   -0.2040    0.6288   -0.4253 C   0  0  0  0  0  0  0  0  0  0  0  0
   -1.4949    0.2675    0.3143 C   0  0  0  0  0  0  0  0  0  0  0  0
   -2.6543    0.7900   -0.3965 N   0  0  0  0  0  0  0  0  0  0  0  0
   -3.9283    0.4888   -0.0357 C   0  0  0  0  0  0  0  0  0  0  0  0
   -4.1929   -0.2951    0.9427 N   0  0  0  0  0  0  0  0  0  0  0  0
   -5.5439   -0.5092    1.4262 C   0  0  0  0  0  0  0  0  0  0  0  0
   -4.8561    1.1678   -0.8405 N   0  0  0  0  0  0  0  0  0  0  0  0
   -5.7801    0.3669   -1.3798 C   0  0  0  0  0  0  0  0  0  0  0  0
   -6.5848   -0.2835   -1.8990 N   0  0  0  0  0  0  0  0  0  0  0  0
    3.7455   -2.5900    0.9164 H   0  0  0  0  0  0  0  0  0  0  0  0
    5.1064   -2.8756   -0.1853 H   0  0  0  0  0  0  0  0  0  0  0  0
    3.5298   -2.4096   -0.8356 H   0  0  0  0  0  0  0  0  0  0  0  0
    6.6836    1.5370    0.8810 H   0  0  0  0  0  0  0  0  0  0  0  0
    6.5656   -0.9983    0.9112 H   0  0  0  0  0  0  0  0  0  0  0  0
    2.3814    1.5888   -0.9745 H   0  0  0  0  0  0  0  0  0  0  0  0
    2.4197   -0.0520   -1.6449 H   0  0  0  0  0  0  0  0  0  0  0  0
   -0.2178    0.1922   -1.4300 H   0  0  0  0  0  0  0  0  0  0  0  0
   -0.1256    1.7164   -0.5303 H   0  0  0  0  0  0  0  0  0  0  0  0
   -1.4812    0.6864    1.3276 H   0  0  0  0  0  0  0  0  0  0  0  0
   -1.5774   -0.8233    0.3953 H   0  0  0  0  0  0  0  0  0  0  0  0
   -2.4841    1.4120   -1.1698 H   0  0  0  0  0  0  0  0  0  0  0  0
   -6.1682    0.3882    1.3672 H   0  0  0  0  0  0  0  0  0  0  0  0
   -5.4986   -0.7875    2.4843 H   0  0  0  0  0  0  0  0  0  0  0  0
   -6.0237   -1.3361    0.8944 H   0  0  0  0  0  0  0  0  0  0  0  0
   -4.4886    1.9126   -1.4253 H   0  0  0  0  0  0  0  0  0  0  0  0
  1  2  1  0  0  0  0
  2  3  2  0  0  0  0
  3  4  1  0  0  0  0
  4  5  2  0  0  0  0
  5  6  1  0  0  0  0
  3  7  1  0  0  0  0
  7  8  1  0  0  0  0
  8  9  1  0  0  0  0
  9 10  1  0  0  0  0
 10 11  1  0  0  0  0
 11 12  1  0  0  0  0
 12 13  2  3  0  0  0
 13 14  1  0  0  0  0
 12 15  1  0  0  0  0
 15 16  1  0  0  0  0
 16 17  3  0  0  0  0
  6  2  1  0  0  0  0
  1 18  1  0  0  0  0
  1 19  1  0  0  0  0
  1 20  1  0  0  0  0
  5 21  1  0  0  0  0
  6 22  1  0  0  0  0
  7 23  1  0  0  0  0
  7 24  1  0  0  0  0
  9 25  1  0  0  0  0
  9 26  1  0  0  0  0
 10 27  1  0  0  0  0
 10 28  1  0  0  0  0
 11 29  1  0  0  0  0
 14 30  1  0  0  0  0
 14 31  1  0  0  0  0
 14 32  1  0  0  0  0
 15 33  1  0  0  0  0
V    1   0.0000    0.0000    0.0000    0.0000    0.0000   0
V    2   0.0000    0.0000    0.0000    0.0000    0.0000   0
V    3   0.0000    0.0000    0.0000    0.0000    0.0000   0
V    4   0.0000    0.0000    0.0000    0.0000    0.0000   A
V    5   0.0000    0.0000    0.0000    0.0000    0.0000   0
V    6   0.0000    0.0000    0.0000    0.0000    0.0000   D
V    7   0.0000    0.0000    0.0000    0.0000    0.0000   0
V    8   0.0000    0.0000    0.0000    0.0000    0.0000   0
V    9   0.0000    0.0000    0.0000    0.0000    0.0000   0
V   10   0.0000    0.0000    0.0000    0.0000    0.0000   0
V   11   0.0000    0.0000    0.0000    0.0000    0.0000  AD
V   12   0.0000    0.0000    0.0000    0.0000    0.0000   0
V   13   0.0000    0.0000    0.0000    0.0000    0.0000   A
V   14   0.0000    0.0000    0.0000    0.0000    0.0000   0
V   15   0.0000    0.0000    0.0000    0.0000    0.0000  AD
V   16   0.0000    0.0000    0.0000    0.0000    0.0000   0
V   17   0.0000    0.0000    0.0000    0.0000    0.0000   A
V   18   0.0000    0.0000    0.0000    0.0000    0.0000   0
V   19   0.0000    0.0000    0.0000    0.0000    0.0000   0
V   20   0.0000    0.0000    0.0000    0.0000    0.0000   0
V   21   0.0000    0.0000    0.0000    0.0000    0.0000   0
V   22   0.0000    0.0000    0.0000    0.0000    0.0000   0
V   23   0.0000    0.0000    0.0000    0.0000    0.0000   0
V   24   0.0000    0.0000    0.0000    0.0000    0.0000   0
V   25   0.0000    0.0000    0.0000    0.0000    0.0000   0
V   26   0.0000    0.0000    0.0000    0.0000    0.0000   0
V   27   0.0000    0.0000    0.0000    0.0000    0.0000   0
V   28   0.0000    0.0000    0.0000    0.0000    0.0000   0
V   29   0.0000    0.0000    0.0000    0.0000    0.0000   0
V   30   0.0000    0.0000    0.0000    0.0000    0.0000   0
V   31   0.0000    0.0000    0.0000    0.0000    0.0000   0
V   32   0.0000    0.0000    0.0000    0.0000    0.0000   0
V   33   0.0000    0.0000    0.0000    0.0000    0.0000   0
M  END
> <PHA_LIPINSKI_HB_ACCEPTORS>
6

> <PHA_LIPINSKI_HB_DONORS>
3

> <PHA_MOLECULAR_WEIGHT>
252

> <PHA_WILDMAN-CRIPPEN_LOGP>
0.597400

> <PHA_LIPINSKI_RO5_COMPLIANCE>
4/4

> <PHA_SMILES>
CN=C(NC#N)NCCSCc1nc[nH]c1C

> <PHA_INCHI>
InChI=1S/C10H16N6S/c1-8-9(16-7-15-8)5-17-4-3-13-10(12-2)14-6-11/h7H,3-5H2,1-2H3,(H,15,16)(H2,12,13,14)

> <PHA_TPSA>
88.890000000 A^2

> <PHA_CONF_ID>
496

> <PHA_CONF_ENERGY>
-104.812165321 Kcal/mol

> <PHA_CONF_ENERGY_DIFF>
18.534125832 Kcal/mol

> <PHA_ROTATABLE_BONDS_NUMBER>
5

$$$$
Tolfenilic_acid
PharmScreen

 30 31  0  0  0  0            999 V2000
    2.1895    2.2596   -0.1249 C   0  0  0  0  0  0  0  0  0  0  0  0
    2.4130    0.7681   -0.0790 C   0  0  0  0  0  0  0  0  0  0  0  0
    1.3189   -0.1294   -0.1351 C   0  0  0  0  0  0  0  0  0  0  0  0
    1.5679   -1.5113   -0.0774 C   0  0  0  0  0  0  0  0  0  0  0  0
    2.8650   -2.0142    0.0058 C   0  0  0  0  0  0  0  0  0  0  0  0
    3.9414   -1.1369    0.0271 C   0  0  0  0  0  0  0  0  0  0  0  0
    3.7200    0.2415   -0.0233 C   0  0  0  0  0  0  0  0  0  0  0  0
    5.1206    1.2594   -0.0261 Cl  0  0  0  0  0  0  0  0  0  0  0  0
   -0.0002    0.3605   -0.2279 N   0  0  0  0  0  0  0  0  0  0  0  0
   -1.2369   -0.1212    0.2568 C   0  0  0  0  0  0  0  0  0  0  0  0
   -1.2919   -1.0112    1.3428 C   0  0  0  0  0  0  0  0  0  0  0  0
   -2.5066   -1.5226    1.8083 C   0  0  0  0  0  0  0  0  0  0  0  0
   -3.6988   -1.1527    1.1971 C   0  0  0  0  0  0  0  0  0  0  0  0
   -3.6782   -0.2619    0.1255 C   0  0  0  0  0  0  0  0  0  0  0  0
   -2.4596    0.2589   -0.3466 C   0  0  0  0  0  0  0  0  0  0  0  0
   -2.4610    1.2307   -1.4735 C   0  0  0  0  0  0  0  0  0  0  0  0
   -1.5058    1.8883   -1.8503 O   0  0  0  0  0  0  0  0  0  0  0  0
   -3.6560    1.3382   -2.0831 O   0  0  0  0  0  0  0  0  0  0  0  0
    2.9143    2.7959    0.4954 H   0  0  0  0  0  0  0  0  0  0  0  0
    2.2647    2.6161   -1.1568 H   0  0  0  0  0  0  0  0  0  0  0  0
    1.2097    2.5404    0.2739 H   0  0  0  0  0  0  0  0  0  0  0  0
    0.7433   -2.2175   -0.1396 H   0  0  0  0  0  0  0  0  0  0  0  0
    3.0323   -3.0874    0.0356 H   0  0  0  0  0  0  0  0  0  0  0  0
    4.9533   -1.5308    0.0753 H   0  0  0  0  0  0  0  0  0  0  0  0
   -0.0938    1.1723   -0.8452 H   0  0  0  0  0  0  0  0  0  0  0  0
   -0.3806   -1.2981    1.8622 H   0  0  0  0  0  0  0  0  0  0  0  0
   -2.5163   -2.2060    2.6540 H   0  0  0  0  0  0  0  0  0  0  0  0
   -4.6442   -1.5490    1.5589 H   0  0  0  0  0  0  0  0  0  0  0  0
   -4.6208    0.0270   -0.3337 H   0  0  0  0  0  0  0  0  0  0  0  0
   -3.5031    1.9932   -2.7961 H   0  0  0  0  0  0  0  0  0  0  0  0
  1  2  1  0  0  0  0
  2  3  2  0  0  0  0
  3  4  1  0  0  0  0
  4  5  2  0  0  0  0
  5  6  1  0  0  0  0
  6  7  2  0  0  0  0
  7  8  1  0  0  0  0
  3  9  1  0  0  0  0
  9 10  1  0  0  0  0
 10 11  2  0  0  0  0
 11 12  1  0  0  0  0
 12 13  2  0  0  0  0
 13 14  1  0  0  0  0
 14 15  2  0  0  0  0
 15 16  1  0  0  0  0
 16 17  2  0  0  0  0
 16 18  1  0  0  0  0
  7  2  1  0  0  0  0
 15 10  1  0  0  0  0
  1 19  1  0  0  0  0
  1 20  1  0  0  0  0
  1 21  1  0  0  0  0
  4 22  1  0  0  0  0
  5 23  1  0  0  0  0
  6 24  1  0  0  0  0
  9 25  1  0  0  0  0
 11 26  1  0  0  0  0
 12 27  1  0  0  0  0
 13 28  1  0  0  0  0
 14 29  1  0  0  0  0
 18 30  1  0  0  0  0
V    1   0.0000    0.0000    0.0000    0.0000    0.0000   0
V    2   0.0000    0.0000    0.0000    0.0000    0.0000   0
V    3   0.0000    0.0000    0.0000    0.0000    0.0000   0
V    4   0.0000    0.0000    0.0000    0.0000    0.0000   0
V    5   0.0000    0.0000    0.0000    0.0000    0.0000   0
V    6   0.0000    0.0000    0.0000    0.0000    0.0000   0
V    7   0.0000    0.0000    0.0000    0.0000    0.0000   0
V    8   0.0000    0.0000    0.0000    0.0000    0.0000   0
V    9   0.0000    0.0000    0.0000    0.0000    0.0000   D
V   10   0.0000    0.0000    0.0000    0.0000    0.0000   0
V   11   0.0000    0.0000    0.0000    0.0000    0.0000   0
V   12   0.0000    0.0000    0.0000    0.0000    0.0000   0
V   13   0.0000    0.0000    0.0000    0.0000    0.0000   0
V   14   0.0000    0.0000    0.0000    0.0000    0.0000   0
V   15   0.0000    0.0000    0.0000    0.0000    0.0000   0
V   16   0.0000    0.0000    0.0000    0.0000    0.0000   0
V   17   0.0000    0.0000    0.0000    0.0000    0.0000   A
V   18   0.0000    0.0000    0.0000    0.0000    0.0000  AD
V   19   0.0000    0.0000    0.0000    0.0000    0.0000   0
V   20   0.0000    0.0000    0.0000    0.0000    0.0000   0
V   21   0.0000    0.0000    0.0000    0.0000    0.0000   0
V   22   0.0000    0.0000    0.0000    0.0000    0.0000   0
V   23   0.0000    0.0000    0.0000    0.0000    0.0000   0
V   24   0.0000    0.0000    0.0000    0.0000    0.0000   0
V   25   0.0000    0.0000    0.0000    0.0000    0.0000   0
V   26   0.0000    0.0000    0.0000    0.0000    0.0000   0
V   27   0.0000    0.0000    0.0000    0.0000    0.0000   0
V   28   0.0000    0.0000    0.0000    0.0000    0.0000   0
V   29   0.0000    0.0000    0.0000    0.0000    0.0000   0
V   30   0.0000    0.0000    0.0000    0.0000    0.0000   0
M  END
> <PHA_LIPINSKI_HB_ACCEPTORS>
3

> <PHA_LIPINSKI_HB_DONORS>
2

> <PHA_MOLECULAR_WEIGHT>
261

> <PHA_WILDMAN-CRIPPEN_LOGP>
4.090220

> <PHA_LIPINSKI_RO5_COMPLIANCE>
4/4

> <PHA_SMILES>
Cc1c(Cl)cccc1Nc1ccccc1C(=O)O

> <PHA_INCHI>
InChI=1S/C14H12ClNO2/c1-9-11(15)6-4-8-12(9)16-13-7-3-2-5-10(13)14(17)18/h2-8,16H,1H3,(H,17,18)

> <PHA_TPSA>
49.330000000 A^2

> <PHA_CONF_ID>
156

> <PHA_CONF_ENERGY>
38.791569943 Kcal/mol

> <PHA_CONF_ENERGY_DIFF>
0.000000015 Kcal/mol

> <PHA_ROTATABLE_BONDS_NUMBER>
3

$$$$